-------------------------------------------------------
          Amber 20 PMEMD                              2020
          -------------------------------------------------------

  [-O]verwriting output

File Assignments:

 Here is the input file:

# Restraint Stage 2, T=300K, molecular dynamics long time run (PME, restart)
 &cntrl
	! GENERAL FLAGS DESCRIBING THE CALCULATION
  	imin=0, 						! Flag to run minimzation (=1 perform energy minimizatin)

	! NATURE AND FORMAT OF THE INPUT
	ntx=5,							! Flag to read the coordinates and velocities from an ASCII coord
	irest=1,						! Flag to restart the simulations with velocities and step count

	! NATURE AND FORMAT OF THE OUTPUT
	ntpr=500,						! Num of Timesteps to Print Readable energy information
	ntwx=500,						! freq of writing coordinates to the mdcrd file
    iwrap=0,						! If iwrap = 1, the coordinates written to the restart and tr
			  						! box, may be required to keep the coordinate output from overflowin

	! FROZEN OR RESTRAINED ATOMS
	ntr=1,							! Flag for restraining specified atoms in Cartesian space using a
	restraint_wt=1.0,				! The weight (in kcal/mol−Å^2) for the positional rest
	restraintmask='(:1-287 & !@H=)',! String that specifies the restrained atoms w

	! MOLECULAR DYNAMICS
nstlim=5000, 						! Number of MD-steps to be performed. Default 1.
	dt=0.004,						! time step (psec), 0.004 possible if prmtop parmed with the HM

	! TEMPERATURE REGULATION
	ntt=1,							! Specifies temperature scaling. =0: Constant total energy, assum
temp0=300.0,						! Reference temperature at which the system is to be kept, if
	tautp=0.1,						! Specifies the time constant (in ps) when ntt = 1. Values sho

	! PRESSURE REGULATION
	ntp=1,							! Flag for constant pressure dynamics. =0 No pressure scaling (De
	taup=0.1,						! Specifies the pressure relaxation time when nto> 0. Recommend

	! SHAKE BOND LENGTH CONTRAINTS
	ntc=2,							! Flag for SHAKE to perform bond length constraints. =1 SHAKE is
									! = 3 all bonds are constrained (not available for parallel or qmmm ru

	! GENERIC PARAMETERS
	ntf=2,							! Force evaluation. If SHAKE is used (see NTC), it is not necessa
									! = 1 complete interaction is calculated (default)
									! = 2 bond interactions involving H-atoms omitted (use with NTC=2)
									! = 3 all the bond interactions are omitted (use with NTC=3)
	ntb=2,							! Flag for periodic boundaries. = 0 no periodicity is applied and
									! = 1 constant volume (default when igb and ntp are both 0, which are
									! = 2 constant pressure (default when ntp > 0)
	dielc=1.0,						! Dielectric multiplicative constant for the electrostatic int
	cut=8.5,						! Flag that specifies the nonbonded cutoff in Angstrom
 &end
eof

Note: ig = -1. Setting random seed to   781967 based on wallclock time in
      microseconds.

--------------------------------------------------------------------------------
   1.  RESOURCE   USE:
--------------------------------------------------------------------------------

 getting box info from netcdf restart file
 NATOM  =   26538 NTYPES =      19 NBONH =   19446 MBONA  =    7080
 NTHETH =    2012 MTHETA =    1194 NPHIH =    3991 MPHIA  =    3764
 NHPARM =       0 NPARM  =       0 NNB   =   53013 NRES   =    6325
 NBONA  =    7080 NTHETA =    1194 NPHIA =    3764 NUMBND =      69
 NUMANG =     156 NPTRA  =     206 NATYP =      38 NPHB   =       1
 IFBOX  =       2 NMXRS  =      26 IFCAP =       0 NEXTRA =    6188
 NCOPY  =       0

     BOX TYPE: TRUNCATED OCTAHEDRON

--------------------------------------------------------------------------------
   2.  CONTROL  DATA  FOR  THE  RUN
--------------------------------------------------------------------------------

default_name

General flags:
     imin    =       0, nmropt  =       0

Nature and format of input:
     ntx     =       5, irest   =       1, ntrx    =       1

Nature and format of output:
     ntxo    =       2, ntpr    =     500, ntrx    =       1, ntwr    =    5000
     iwrap   =       0, ntwx    =     500, ntwv    =       0, ntwe    =       0
     ioutfm  =       1, ntwprt  =       0, idecomp =       0, rbornstat=      0

Potential function:
     ntf     =       2, ntb     =       2, igb     =       0, nsnb    =      25
     ipol    =       0, gbsa    =       0, iesp    =       0
     dielc   =   1.00000, cut     =   8.50000, intdiel =   1.00000

Frozen or restrained atoms:
     ibelly  =       0, ntr     =       1
     restraint_wt =   1.00000

Molecular dynamics:
     nstlim  =      5000, nscm    =         0, nrespa  =         1
     t       =   0.00000, dt      =   0.00400, vlimit  =  -1.00000

Berendsen (weak-coupling) temperature regulation:
     temp0   = 300.00000, tempi   =   0.00000, tautp   =   0.10000

Pressure regulation:
     ntp     =       1
     pres0   =   1.00000, comp    =  44.60000, taup    =   0.10000

SHAKE:
     ntc     =       2, jfastw  =       0
     tol     =   0.00001

Extra-points options:
     frameon =       1, chngmask=       1

Ewald parameters:
     verbose =       0, ew_type =       0, nbflag  =       1, use_pme =       1
     vdwmeth =       1, eedmeth =       1, netfrc  =       1
     Box X =   64.235   Box Y =   64.235   Box Z =   64.235
     Alpha =  109.471   Beta  =  109.471   Gamma =  109.471
     NFFT1 =   64       NFFT2 =   64       NFFT3 =   64
     Cutoff=    8.500   Tol   =0.100E-04
     Ewald Coefficient =  0.32692
     Interpolation order =    4

    LOADING THE CONSTRAINED ATOMS AS GROUPS

   5.  REFERENCE ATOM COORDINATES

  default_name
     Mask (:1-287 & !@H=); matches  1204 atoms

--------------------------------------------------------------------------------
   3.  ATOMIC COORDINATES AND VELOCITIES
--------------------------------------------------------------------------------

default_name
 begin time read from input coords =   140.000 ps

 Number of triangulated 3-point waters found:     6188

     Sum of charges from parm topology file =   0.00003388
     Forcing neutrality...

--------------------------------------------------------------------------------
   4.  RESULTS
 NSTEP =      500   TIME(PS) =     142.000  TEMP(K) =   296.84  PRESS =   -69.7
 Etot   =    -67892.0665  EKtot   =     12270.8047  EPtot      =    -80162.8712
 BOND   =       361.8058  ANGLE   =       853.6748  DIHED      =      1431.1120
 1-4 NB =       434.9166  1-4 EEL =      4982.1482  VDWAALS    =      9564.4741
 EELEC  =    -98151.7119  EHBOND  =         0.0000  RESTRAINT  =       360.7092
 EAMBER (non-restraint)  =    -80523.5804
 EKCMT  =      5648.5705  VIRIAL  =      5954.0035  VOLUME     =    202913.2545
                                                    Density    =         1.0213
 ------------------------------------------------------------------------------

      A V E R A G E S   O V E R      10 S T E P S

 NSTEP =     5000   TIME(PS) =     160.000  TEMP(K) =   299.24  PRESS =   -48.2
 Etot   =    -67861.4831  EKtot   =     12369.8576  EPtot      =    -80231.3408
 BOND   =       367.0832  ANGLE   =       866.6065  DIHED      =      1421.9549
 1-4 NB =       422.7285  1-4 EEL =      4955.8986  VDWAALS    =      9757.8552
 EELEC  =    -98433.5884  EHBOND  =         0.0000  RESTRAINT  =       410.1207
 EAMBER (non-restraint)  =    -80641.4615
 EKCMT  =      5732.6277  VIRIAL  =      5943.9899  VOLUME     =    202951.8531
                                                    Density    =         1.0211
 ------------------------------------------------------------------------------

      R M S  F L U C T U A T I O N S

 NSTEP =     5000   TIME(PS) =     160.000  TEMP(K) =     1.65  PRESS =    97.1
 Etot   =        71.8251  EKtot   =        68.2169  EPtot      =       105.7350
 BOND   =        16.3374  ANGLE   =        24.1579  DIHED      =        11.4880
 1-4 NB =         6.2778  1-4 EEL =        14.4824  VDWAALS    =       129.7612
 EELEC  =       168.5977  EHBOND  =         0.0000  RESTRAINT  =        19.9245
 EAMBER (non-restraint)  =        85.8106
 EKCMT  =        62.9226  VIRIAL  =       450.8912  VOLUME     =       390.1645
                                                    Density    =         0.0020
 ------------------------------------------------------------------------------
