-------------------------------------------------------
          Amber 20 PMEMD                              2020
          -------------------------------------------------------

  [-O]verwriting output

File Assignments:

 Here is the input file:

# Final Restraint Stage, T=300K, molecular dynamics long time run (PME, restart
 &cntrl
	! GENERAL FLAGS DESCRIBING THE CALCULATION
  	imin=0, 			! Flag to run minimzation (=1 perform energy minimizatin)

	! NATURE AND FORMAT OF THE INPUT
	ntx=5,				! Flag to read the coordinates and velocities from an ASCII coordina
	irest=1,			! Flag to restart the simulations with velocities and step counter

	! NATURE AND FORMAT OF THE OUTPUT
	ntpr=500,			! Num of Timesteps to Print Readable energy information
	ntwx=500,				! freq of writing coordinates to the mdcrd file
        iwrap=0,			! If iwrap = 1, the coordinates written to the restart and t
			  		! box, may be required to keep the coordinate output from overflowing; I

	! FROZEN OR RESTRAINED ATOMS
	ntr=1,				! Flag for restraining specified atoms in Cartesian space using a ha
	restraint_wt=0.5,		! The weight (in kcal/mol−Å^2) for the positional restra
	restraintmask='(:1-287 & !@H=)',! String that specifies the restrained atoms w

	! MOLECULAR DYNAMICS
	nstlim=5000, 			! Number of MD-steps to be performed. Default 1.
	dt=0.004,			! time step (psec), 0.004 possible if prmtop parmed with the HMass

	! TEMPERATURE REGULATION
	ntt=1,				! Specifies temperature scaling. =0: Constant total energy, assuming
	temp0=300.0,			! Reference temperature at which the system is to be kept, if n
	tautp=0.1,			! Specifies the time constant (in ps) when ntt = 1. Values should

	! PRESSURE REGULATION
	ntp=1,				! Flag for constant pressure dynamics. =0 No pressure scaling (Defau
	taup=0.1,			! Specifies the pressure relaxation time when nto> 0. Recommended

	! SHAKE BOND LENGTH CONTRAINTS
	ntc=2,				! Flag for SHAKE to perform bond length constraints. =1 SHAKE is not
					! = 3 all bonds are constrained (not available for parallel or qmmm runs i

	! GENERIC PARAMETERS
	ntf=2,				! Force evaluation. If SHAKE is used (see NTC), it is not necessary
					! = 1 complete interaction is calculated (default)
					! = 2 bond interactions involving H-atoms omitted (use with NTC=2)
					! = 3 all the bond interactions are omitted (use with NTC=3)
	ntb=2,				! Flag for periodic boundaries. = 0 no periodicity is applied and PM
					! = 1 constant volume (default when igb and ntp are both 0, which are thei
					! = 2 constant pressure (default when ntp > 0)
	dielc=1.0,			! Dielectric multiplicative constant for the electrostatic intera
	cut=8.5,			! Flag that specifies the nonbonded cutoff in Angstrom
 &end
eof

Note: ig = -1. Setting random seed to   749777 based on wallclock time in
      microseconds.

--------------------------------------------------------------------------------
   1.  RESOURCE   USE:
--------------------------------------------------------------------------------

 getting box info from netcdf restart file
 NATOM  =   26538 NTYPES =      19 NBONH =   19446 MBONA  =    7080
 NTHETH =    2012 MTHETA =    1194 NPHIH =    3991 MPHIA  =    3764
 NHPARM =       0 NPARM  =       0 NNB   =   53013 NRES   =    6325
 NBONA  =    7080 NTHETA =    1194 NPHIA =    3764 NUMBND =      69
 NUMANG =     156 NPTRA  =     206 NATYP =      38 NPHB   =       1
 IFBOX  =       2 NMXRS  =      26 IFCAP =       0 NEXTRA =    6188
 NCOPY  =       0

     BOX TYPE: TRUNCATED OCTAHEDRON

--------------------------------------------------------------------------------
   2.  CONTROL  DATA  FOR  THE  RUN
--------------------------------------------------------------------------------

default_name

General flags:
     imin    =       0, nmropt  =       0

Nature and format of input:
     ntx     =       5, irest   =       1, ntrx    =       1

Nature and format of output:
     ntxo    =       2, ntpr    =     500, ntrx    =       1, ntwr    =    5000
     iwrap   =       0, ntwx    =     500, ntwv    =       0, ntwe    =       0
     ioutfm  =       1, ntwprt  =       0, idecomp =       0, rbornstat=      0

Potential function:
     ntf     =       2, ntb     =       2, igb     =       0, nsnb    =      25
     ipol    =       0, gbsa    =       0, iesp    =       0
     dielc   =   1.00000, cut     =   8.50000, intdiel =   1.00000

Frozen or restrained atoms:
     ibelly  =       0, ntr     =       1
     restraint_wt =   0.50000

Molecular dynamics:
     nstlim  =      5000, nscm    =         0, nrespa  =         1
     t       =   0.00000, dt      =   0.00400, vlimit  =  -1.00000

Berendsen (weak-coupling) temperature regulation:
     temp0   = 300.00000, tempi   =   0.00000, tautp   =   0.10000

Pressure regulation:
     ntp     =       1
     pres0   =   1.00000, comp    =  44.60000, taup    =   0.10000

SHAKE:
     ntc     =       2, jfastw  =       0
     tol     =   0.00001

Extra-points options:
     frameon =       1, chngmask=       1

Ewald parameters:
     verbose =       0, ew_type =       0, nbflag  =       1, use_pme =       1
     vdwmeth =       1, eedmeth =       1, netfrc  =       1
     Box X =   64.064   Box Y =   64.064   Box Z =   64.064
     Alpha =  109.471   Beta  =  109.471   Gamma =  109.471
     NFFT1 =   64       NFFT2 =   64       NFFT3 =   64
     Cutoff=    8.500   Tol   =0.100E-04
     Ewald Coefficient =  0.32692
     Interpolation order =    4

    LOADING THE CONSTRAINED ATOMS AS GROUPS

   5.  REFERENCE ATOM COORDINATES

  default_name
     Mask (:1-287 & !@H=); matches  1204 atoms

--------------------------------------------------------------------------------
   3.  ATOMIC COORDINATES AND VELOCITIES
--------------------------------------------------------------------------------

default_name
 begin time read from input coords =   160.000 ps

 Number of triangulated 3-point waters found:     6188

     Sum of charges from parm topology file =   0.00003388
     Forcing neutrality...

--------------------------------------------------------------------------------
   4.  RESULTS
 NSTEP =      500   TIME(PS) =     162.000  TEMP(K) =   302.80  PRESS =   -73.9
 Etot   =    -67972.1712  EKtot   =     12517.0654  EPtot      =    -80489.2366
 BOND   =       362.8074  ANGLE   =       860.8062  DIHED      =      1402.0386
 1-4 NB =       422.7489  1-4 EEL =      4966.0510  VDWAALS    =      9630.9358
 EELEC  =    -98451.4172  EHBOND  =         0.0000  RESTRAINT  =       316.7928
 EAMBER (non-restraint)  =    -80806.0294
 EKCMT  =      5801.4916  VIRIAL  =      6123.6548  VOLUME     =    201897.0329
                                                    Density    =         1.0265
 ------------------------------------------------------------------------------

      A V E R A G E S   O V E R      10 S T E P S

 NSTEP =     5000   TIME(PS) =     180.000  TEMP(K) =   300.70  PRESS =   -42.0
 Etot   =    -67949.9801  EKtot   =     12430.2597  EPtot      =    -80380.2398
 BOND   =       362.0403  ANGLE   =       883.9517  DIHED      =      1417.5529
 1-4 NB =       417.4889  1-4 EEL =      4945.7711  VDWAALS    =      9778.7871
 EELEC  =    -98561.7049  EHBOND  =         0.0000  RESTRAINT  =       375.8731
 EAMBER (non-restraint)  =    -80756.1129
 EKCMT  =      5750.2238  VIRIAL  =      5933.7576  VOLUME     =    202409.1360
                                                    Density    =         1.0239
 ------------------------------------------------------------------------------

      R M S  F L U C T U A T I O N S

 NSTEP =     5000   TIME(PS) =     180.000  TEMP(K) =     1.07  PRESS =    67.7
 Etot   =        48.9587  EKtot   =        44.0391  EPtot      =        72.6267
 BOND   =        12.7258  ANGLE   =        17.7173  DIHED      =        11.1878
 1-4 NB =         9.4091  1-4 EEL =        17.8791  VDWAALS    =       120.0719
 EELEC  =       166.0783  EHBOND  =         0.0000  RESTRAINT  =        34.8653
 EAMBER (non-restraint)  =        37.7614
 EKCMT  =        40.9269  VIRIAL  =       313.6411  VOLUME     =       482.0535
                                                    Density    =         0.0024
 ------------------------------------------------------------------------------
