-------------------------------------------------------
          Amber 20 PMEMD                              2020
          -------------------------------------------------------

  [-O]verwriting output

File Assignments:

 Here is the input file:

# restraints stage 1, Heating to 200, molecular dynamics long time run (PME, re
 &cntrl

	! GENERAL FLAGS DESCRIBING THE CALCULATION
  	imin=0, 			! Flag to run minimzation (=1 perform energy minimizatin)

	! NATURE AND FORMAT OF THE INPUT
	ntx=5,				! Flag to read the coordinates and velocities from an ASCII coordina
	irest=1,			! Flag to restart the simulations with velocities and step counter

	! NATURE AND FORMAT OF THE OUTPUT
	ntpr=500,			! Num of Timesteps to Print Readable energy information
	ntwx=500,				! freq of writing coordinates to the mdcrd file
        iwrap=0,			! If iwrap = 1, the coordinates written to the restart and t
			  		! box, may be required to keep the coordinate output from overflowing; I

	! FROZEN OR RESTRAINED ATOMS
	ntr=1,				! Flag for restraining specified atoms in Cartesian space using a ha
	restraint_wt=5.0,		! The weight (in kcal/mol−Å^2) for the positional restra
	restraintmask='(:1-287 & !@H=)',! String that specifies the restrained atoms w

	! MOLECULAR DYNAMICS
	nstlim=5000, 			! Number of MD-steps to be performed. Default 1.
	dt=0.004,			! time step (psec), 0.004 possible if prmtop parmed with the HMass

	! TEMPERATURE REGULATION
	ntt=1,				! Specifies temperature scaling. =0: Constant total energy, assuming
	temp0=200.0,			! Reference temperature at which the system is to be kept, if n
	tautp=0.1,			! Specifies the time constant (in ps) when ntt = 1. Values should

	! PRESSURE REGULATION
	ntp=1,				! Flag for constant pressure dynamics. =0 No pressure scaling (Defau
	taup=0.1,			! Specifies the pressure relaxation time when nto> 0. Recommended

	! SHAKE BOND LENGTH CONTRAINTS
	ntc=2,				! Flag for SHAKE to perform bond length constraints. =1 SHAKE is not
					! = 3 all bonds are constrained (not available for parallel or qmmm runs i

	! GENERIC PARAMETERS
	ntf=2,				! Force evaluation. If SHAKE is used (see NTC), it is not necessary
					! = 1 complete interaction is calculated (default)
					! = 2 bond interactions involving H-atoms omitted (use with NTC=2)
					! = 3 all the bond interactions are omitted (use with NTC=3)
	ntb=2,				! Flag for periodic boundaries. = 0 no periodicity is applied and PM
					! = 1 constant volume (default when igb and ntp are both 0, which are thei
					! = 2 constant pressure (default when ntp > 0)
	dielc=1.0,			! Dielectric multiplicative constant for the electrostatic intera
	cut=8.5,			! Flag that specifies the nonbonded cutoff in Angstrom
 &end
eof

Note: ig = -1. Setting random seed to   327514 based on wallclock time in
      microseconds.

--------------------------------------------------------------------------------
   1.  RESOURCE   USE:
--------------------------------------------------------------------------------

 getting box info from netcdf restart file
 NATOM  =   26538 NTYPES =      19 NBONH =   19446 MBONA  =    7080
 NTHETH =    2012 MTHETA =    1194 NPHIH =    3991 MPHIA  =    3764
 NHPARM =       0 NPARM  =       0 NNB   =   53013 NRES   =    6325
 NBONA  =    7080 NTHETA =    1194 NPHIA =    3764 NUMBND =      69
 NUMANG =     156 NPTRA  =     206 NATYP =      38 NPHB   =       1
 IFBOX  =       2 NMXRS  =      26 IFCAP =       0 NEXTRA =    6188
 NCOPY  =       0

     BOX TYPE: TRUNCATED OCTAHEDRON

--------------------------------------------------------------------------------
   2.  CONTROL  DATA  FOR  THE  RUN
--------------------------------------------------------------------------------

default_name

General flags:
     imin    =       0, nmropt  =       0

Nature and format of input:
     ntx     =       5, irest   =       1, ntrx    =       1

Nature and format of output:
     ntxo    =       2, ntpr    =     500, ntrx    =       1, ntwr    =    5000
     iwrap   =       0, ntwx    =     500, ntwv    =       0, ntwe    =       0
     ioutfm  =       1, ntwprt  =       0, idecomp =       0, rbornstat=      0

Potential function:
     ntf     =       2, ntb     =       2, igb     =       0, nsnb    =      25
     ipol    =       0, gbsa    =       0, iesp    =       0
     dielc   =   1.00000, cut     =   8.50000, intdiel =   1.00000

Frozen or restrained atoms:
     ibelly  =       0, ntr     =       1
     restraint_wt =   5.00000

Molecular dynamics:
     nstlim  =      5000, nscm    =         0, nrespa  =         1
     t       =   0.00000, dt      =   0.00400, vlimit  =  -1.00000

Berendsen (weak-coupling) temperature regulation:
     temp0   = 200.00000, tempi   =   0.00000, tautp   =   0.10000

Pressure regulation:
     ntp     =       1
     pres0   =   1.00000, comp    =  44.60000, taup    =   0.10000

SHAKE:
     ntc     =       2, jfastw  =       0
     tol     =   0.00001

Extra-points options:
     frameon =       1, chngmask=       1

Ewald parameters:
     verbose =       0, ew_type =       0, nbflag  =       1, use_pme =       1
     vdwmeth =       1, eedmeth =       1, netfrc  =       1
     Box X =   64.294   Box Y =   64.294   Box Z =   64.294
     Alpha =  109.471   Beta  =  109.471   Gamma =  109.471
     NFFT1 =   64       NFFT2 =   64       NFFT3 =   64
     Cutoff=    8.500   Tol   =0.100E-04
     Ewald Coefficient =  0.32692
     Interpolation order =    4

    LOADING THE CONSTRAINED ATOMS AS GROUPS

   5.  REFERENCE ATOM COORDINATES

  default_name
     Mask (:1-287 & !@H=); matches  1204 atoms

--------------------------------------------------------------------------------
   3.  ATOMIC COORDINATES AND VELOCITIES
--------------------------------------------------------------------------------

default_name
 begin time read from input coords =    20.000 ps

 Number of triangulated 3-point waters found:     6188

     Sum of charges from parm topology file =   0.00003388
     Forcing neutrality...

--------------------------------------------------------------------------------
   4.  RESULTS
 NSTEP =      500   TIME(PS) =      22.000  TEMP(K) =   195.84  PRESS =   223.0
 Etot   =    -78613.4948  EKtot   =      8095.4648  EPtot      =    -86708.9596
 BOND   =       207.8245  ANGLE   =       729.8603  DIHED      =      1498.2494
 1-4 NB =       460.3554  1-4 EEL =      4988.7076  VDWAALS    =     13893.7152
 EELEC  =   -109883.8819  EHBOND  =         0.0000  RESTRAINT  =      1396.2099
 EAMBER (non-restraint)  =    -88105.1695
 EKCMT  =      4026.5203  VIRIAL  =      3022.4758  VOLUME     =    208487.6283
                                                    Density    =         0.9940
 ------------------------------------------------------------------------------

      A V E R A G E S   O V E R      10 S T E P S

 NSTEP =     5000   TIME(PS) =      40.000  TEMP(K) =   199.97  PRESS =    42.7
 Etot   =    -79661.4583  EKtot   =      8266.4525  EPtot      =    -87927.9108
 BOND   =       247.5468  ANGLE   =       691.9635  DIHED      =      1419.7622
 1-4 NB =       427.8105  1-4 EEL =      4991.0831  VDWAALS    =     13572.4532
 EELEC  =   -109894.7511  EHBOND  =         0.0000  RESTRAINT  =       616.2209
 EAMBER (non-restraint)  =    -88544.1318
 EKCMT  =      3849.2674  VIRIAL  =      3658.9317  VOLUME     =    204777.6391
                                                    Density    =         1.0121
 ------------------------------------------------------------------------------

      R M S  F L U C T U A T I O N S

 NSTEP =     5000   TIME(PS) =      40.000  TEMP(K) =     1.75  PRESS =    78.0
 Etot   =       509.4618  EKtot   =        72.4426  EPtot      =       537.9264
 BOND   =        16.1947  ANGLE   =        40.2411  DIHED      =        29.8379
 1-4 NB =        13.1064  1-4 EEL =        16.4040  VDWAALS    =       139.1077
 EELEC  =       313.0442  EHBOND  =         0.0000  RESTRAINT  =       263.4193
 EAMBER (non-restraint)  =       274.5071
 EKCMT  =        65.0262  VIRIAL  =       317.2214  VOLUME     =      1427.1278
                                                    Density    =         0.0070
 ------------------------------------------------------------------------------
