-------------------------------------------------------
          Amber 20 PMEMD                              2020
          -------------------------------------------------------

  [-O]verwriting output

File Assignments:

 Here is the input file:

# restraints stage 1, heating to a 100, molecular dynamics long time run (PME,
 &cntrl
	! GENERAL FLAGS DESCRIBING THE CALCULATION
  	imin=0, 			! Flag to run minimzation (=1 perform energy minimizatin)

	! NATURE AND FORMAT OF THE INPUT
	ntx=1,				! Flag to read the coordinates and velocities from an ASCII coordina
	irest=0,			! Flag to restart the simulations with velocities and step counter

	! NATURE AND FORMAT OF THE OUTPUT
	ntpr=500,			! Num of Timesteps to Print Readable energy information
	ntwx=500,			! freq of writing coordinates to the mdcrd file
        iwrap=0,			! If iwrap = 1, the coordinates written to the restart and t
			  		! box, may be required to keep the coordinate output from overflowing; I

	! FROZEN OR RESTRAINED ATOMS
	ntr=1,				! Flag for restraining specified atoms in Cartesian space using a ha
	restraint_wt=5.0,		! The weight (in kcal/mol−Å^2) for the positional restra
	restraintmask='(:1-287 & !@H=)',! String that specifies the restrained atoms w

	! MOLECULAR DYNAMICS
	nstlim=5000, 			! Number of MD-steps to be performed. Default 1.
	dt=0.004,			! time step (psec), 0.004 possible if prmtop parmed with the HMass

	! TEMPERATURE REGULATION
	ntt=1,				! Specifies temperature scaling. =0: Constant total energy, assuming
	temp0=100.0,			! Reference temperature at which the system is to be kept, if n
	tautp=0.1,			! Specifies the time constant (in ps) when ntt = 1. Values should

	! PRESSURE REGULATION
	ntp=1,				! Flag for constant pressure dynamics. =0 No pressure scaling (Defau
	taup=0.1,			! Specifies the pressure relaxation time when nto> 0. Recommended

	! SHAKE BOND LENGTH CONTRAINTS
	ntc=2,				! Flag for SHAKE to perform bond length constraints. =1 SHAKE is not
					!  = 3 all bonds are constrained (not available for parallel or qmmm runs

	! GENERIC PARAMETERS
	ntf=2,				! Force evaluation. If SHAKE is used (see NTC), it is not necessary
					! = 1 complete interaction is calculated (default)
					! = 2 bond interactions involving H-atoms omitted (use with NTC=2)
					! = 3 all the bond interactions are omitted (use with NTC=3)
	ntb=2,				! Flag for periodic boundaries. = 0 no periodicity is applied and PM
					! = 1 constant volume (default when igb and ntp are both 0, which are thei
					! = 2 constant pressure (default when ntp > 0)
	dielc=1.0,			! Dielectric multiplicative constant for the electrostatic intera
	cut=8.5,			! Flag that specifies the nonbonded cutoff in Angstrom
 &end
eof

Note: ig = -1. Setting random seed to   628171 based on wallclock time in
      microseconds.

--------------------------------------------------------------------------------
   1.  RESOURCE   USE:
--------------------------------------------------------------------------------

 getting box info from netcdf restart file
 NATOM  =   26538 NTYPES =      19 NBONH =   19446 MBONA  =    7080
 NTHETH =    2012 MTHETA =    1194 NPHIH =    3991 MPHIA  =    3764
 NHPARM =       0 NPARM  =       0 NNB   =   53013 NRES   =    6325
 NBONA  =    7080 NTHETA =    1194 NPHIA =    3764 NUMBND =      69
 NUMANG =     156 NPTRA  =     206 NATYP =      38 NPHB   =       1
 IFBOX  =       2 NMXRS  =      26 IFCAP =       0 NEXTRA =    6188
 NCOPY  =       0

     BOX TYPE: TRUNCATED OCTAHEDRON

--------------------------------------------------------------------------------
   2.  CONTROL  DATA  FOR  THE  RUN
--------------------------------------------------------------------------------

default_name

General flags:
     imin    =       0, nmropt  =       0

Nature and format of input:
     ntx     =       1, irest   =       0, ntrx    =       1

Nature and format of output:
     ntxo    =       2, ntpr    =     500, ntrx    =       1, ntwr    =    5000
     iwrap   =       0, ntwx    =     500, ntwv    =       0, ntwe    =       0
     ioutfm  =       1, ntwprt  =       0, idecomp =       0, rbornstat=      0

Potential function:
     ntf     =       2, ntb     =       2, igb     =       0, nsnb    =      25
     ipol    =       0, gbsa    =       0, iesp    =       0
     dielc   =   1.00000, cut     =   8.50000, intdiel =   1.00000

Frozen or restrained atoms:
     ibelly  =       0, ntr     =       1
     restraint_wt =   5.00000

Molecular dynamics:
     nstlim  =      5000, nscm    =         0, nrespa  =         1
     t       =   0.00000, dt      =   0.00400, vlimit  =  -1.00000

Berendsen (weak-coupling) temperature regulation:
     temp0   = 100.00000, tempi   =   0.00000, tautp   =   0.10000

Pressure regulation:
     ntp     =       1
     pres0   =   1.00000, comp    =  44.60000, taup    =   0.10000

SHAKE:
     ntc     =       2, jfastw  =       0
     tol     =   0.00001

Extra-points options:
     frameon =       1, chngmask=       1

Ewald parameters:
     verbose =       0, ew_type =       0, nbflag  =       1, use_pme =       1
     vdwmeth =       1, eedmeth =       1, netfrc  =       1
     Box X =   67.530   Box Y =   67.530   Box Z =   67.530
     Alpha =  109.471   Beta  =  109.471   Gamma =  109.471
     NFFT1 =   64       NFFT2 =   64       NFFT3 =   64
     Cutoff=    8.500   Tol   =0.100E-04
     Ewald Coefficient =  0.32692
     Interpolation order =    4

    LOADING THE CONSTRAINED ATOMS AS GROUPS

   5.  REFERENCE ATOM COORDINATES

  default_name
     Mask (:1-287 & !@H=); matches  1204 atoms

--------------------------------------------------------------------------------
   3.  ATOMIC COORDINATES AND VELOCITIES
--------------------------------------------------------------------------------

default_name
 begin time read from input coords =     0.000 ps

 Number of triangulated 3-point waters found:     6188

     Sum of charges from parm topology file =   0.00003388
     Forcing neutrality...

--------------------------------------------------------------------------------
   4.  RESULTS
 NSTEP =        0   TIME(PS) =       0.000  TEMP(K) =     0.00  PRESS = -7138.3
 Etot   =   -125176.3144  EKtot   =         0.0000  EPtot      =   -125176.3144
 BOND   =        66.0255  ANGLE   =       201.7826  DIHED      =      1249.8783
 1-4 NB =       353.2209  1-4 EEL =      4914.9222  VDWAALS    =     23401.3309
 EELEC  =   -160339.7932  EHBOND  =         0.0000  RESTRAINT  =      4976.3184
 EAMBER (non-restraint)  =   -130152.6329
 EKCMT  =         0.0000  VIRIAL  =     36538.1307  VOLUME     =    237067.0975
                                                    Density    =         0.8742
 ------------------------------------------------------------------------------

      A V E R A G E S   O V E R      10 S T E P S

 NSTEP =     5000   TIME(PS) =      20.000  TEMP(K) =   100.30  PRESS =     1.9
 Etot   =    -88292.7458  EKtot   =      4146.3538  EPtot      =    -92439.0996
 BOND   =       113.7333  ANGLE   =       386.6754  DIHED      =      1356.5727
 1-4 NB =       414.2217  1-4 EEL =      5008.8727  VDWAALS    =     15538.2566
 EELEC  =   -115763.9524  EHBOND  =         0.0000  RESTRAINT  =       506.5202
 EAMBER (non-restraint)  =    -92945.6199
 EKCMT  =      2163.8016  VIRIAL  =      2155.6206  VOLUME     =    205178.7799
                                                    Density    =         1.0101
 ------------------------------------------------------------------------------

      R M S  F L U C T U A T I O N S

 NSTEP =     5000   TIME(PS) =      20.000  TEMP(K) =     0.79  PRESS =    49.6
 Etot   =       513.9032  EKtot   =        32.6806  EPtot      =       481.7677
 BOND   =        11.9415  ANGLE   =         8.2551  DIHED      =        12.2269
 1-4 NB =         6.8970  1-4 EEL =         8.6406  VDWAALS    =       178.9788
 EELEC  =       618.2798  EHBOND  =         0.0000  RESTRAINT  =        41.9710
 EAMBER (non-restraint)  =       439.7967
 EKCMT  =       211.3952  VIRIAL  =       400.3004  VOLUME     =       821.3609
                                                    Density    =         0.0040
 ------------------------------------------------------------------------------
